Version 4
SHEET 1 2676 680
WIRE 880 -16 752 -16
WIRE 1040 -16 880 -16
WIRE 1152 -16 1152 -32
WIRE 1152 -16 1104 -16
WIRE 1248 -16 1152 -16
WIRE 1776 -16 1248 -16
WIRE 1920 -16 1856 -16
WIRE 2112 -16 1920 -16
WIRE 2192 -16 2112 -16
WIRE 2528 -16 2448 -16
WIRE 2608 -16 2528 -16
WIRE 2112 32 2112 -16
WIRE 1920 48 1920 -16
WIRE 2528 48 2528 -16
WIRE 2608 48 2608 -16
WIRE 752 64 752 -16
WIRE 880 80 880 -16
WIRE 1152 80 1152 -16
WIRE 1248 80 1248 -16
WIRE 1920 160 1920 112
WIRE 2112 160 2112 96
WIRE 2320 160 2320 80
WIRE 2528 160 2528 112
WIRE 2608 160 2608 128
WIRE 752 224 752 144
WIRE 880 224 880 144
WIRE 1152 224 1152 144
WIRE 1248 224 1248 144
FLAG 880 224 0
FLAG 1248 224 0
FLAG 2608 160 0
FLAG 752 224 0
FLAG 1152 224 0
FLAG 1920 160 0
FLAG 2528 160 0
FLAG 2320 160 0
FLAG 2112 160 0
SYMBOL cap 864 80 R0
SYMATTR InstName C6
SYMATTR Value 10n
SYMBOL cap 1232 80 R0
SYMATTR InstName C7
SYMATTR Value 4µ7
SYMATTR SpiceLine Rser=1
SYMBOL res 2592 32 R0
SYMATTR InstName R1
SYMATTR Value 3R3
SYMBOL voltage 752 48 R0
WINDOW 123 24 124 Left 2
WINDOW 39 0 0 Left 0
SYMATTR Value2 AC 1V 0
SYMATTR InstName V1
SYMATTR Value 5V
SYMBOL FerriteBead 1072 -16 R90
WINDOW 0 -16 0 VBottom 2
SYMATTR InstName L1
SYMATTR Value 150n
SYMATTR SpiceLine Ipk=3 Rser=0.025 Rpar=35 Cpar=850f mfg="Würth Elektronik" pn="742792609 WE-CBF 0603"
SYMBOL cap 1136 80 R0
SYMATTR InstName C1
SYMATTR Value 100n
SYMATTR SpiceLine Rser=0.05
SYMBOL cap 1904 48 R0
SYMATTR InstName C2
SYMATTR Value 4µ7
SYMATTR SpiceLine Rser=1
SYMBOL ind 1760 0 R270
WINDOW 0 32 56 VTop 2
WINDOW 3 5 56 VBottom 2
SYMATTR InstName L2
SYMATTR Value 47µ
SYMATTR SpiceLine Rser=0.067
SYMBOL PowerProducts\\LT1117-3.3 2320 -16 R0
SYMATTR InstName U1
SYMBOL cap 2512 48 R0
SYMATTR InstName C4
SYMATTR Value 4µ7
SYMATTR SpiceLine Rser=0.05
SYMBOL cap 2096 32 R0
SYMATTR InstName C3
SYMATTR Value 470n
SYMATTR SpiceLine Rser=0.05
TEXT 720 248 Left 2 !.ac dec 50 1 100000000
