Version 4
SHEET 1 1012 680
WIRE 128 -16 -48 -16
WIRE 128 0 128 -16
WIRE 128 96 128 64
WIRE 848 112 528 112
WIRE 528 144 528 112
WIRE 128 176 128 160
WIRE 944 240 720 240
WIRE 128 256 128 240
WIRE 208 256 128 256
WIRE 368 256 288 256
WIRE 480 256 368 256
WIRE 592 256 480 256
WIRE -48 272 -48 -16
WIRE 848 272 848 112
WIRE 848 272 720 272
WIRE 128 288 128 256
WIRE 368 288 368 256
WIRE 528 288 528 224
WIRE 592 288 528 288
WIRE 480 304 480 256
WIRE 768 304 720 304
WIRE 528 320 528 288
WIRE 848 320 848 272
WIRE 944 320 944 240
WIRE -48 432 -48 352
WIRE 128 432 128 368
WIRE 128 432 -48 432
WIRE 368 432 368 352
WIRE 368 432 128 432
WIRE 480 432 480 368
WIRE 480 432 368 432
WIRE 528 432 528 400
WIRE 528 432 480 432
WIRE 768 432 768 304
WIRE 768 432 528 432
WIRE 848 432 848 400
WIRE 848 432 768 432
WIRE 944 432 944 400
WIRE 944 432 848 432
WIRE 368 464 368 432
FLAG 368 464 0
SYMBOL zener 144 64 R180
WINDOW 0 24 64 Left 2
WINDOW 3 24 0 Left 2
SYMATTR InstName D1
SYMATTR Value BZX84C15L
SYMBOL res 112 272 R0
SYMATTR InstName R1
SYMATTR Value 100K
SYMBOL AutoGenerated\\TLV7011 656 272 R0
SYMATTR InstName U1
SYMBOL AutoGenerated\\BZX84C3V3LY 368 320 R270
SYMATTR InstName U2
SYMBOL schottky 496 368 R180
WINDOW 0 24 64 Left 2
WINDOW 3 24 0 Left 2
SYMATTR InstName D3
SYMATTR Value UPSC600
SYMBOL voltage -48 256 R0
WINDOW 123 0 0 Left 0
WINDOW 39 0 0 Left 0
SYMATTR InstName V1
SYMATTR Value 0
SYMBOL voltage 848 304 R0
WINDOW 123 0 0 Left 0
WINDOW 39 0 0 Left 0
SYMATTR InstName V2
SYMATTR Value 3.3V
SYMBOL res 928 304 R0
SYMATTR InstName R3
SYMATTR Value 10K
SYMBOL res 512 304 R0
SYMATTR InstName R4
SYMATTR Value 1K
SYMBOL res 512 128 R0
SYMATTR InstName R5
SYMATTR Value 5K
SYMBOL zener 144 160 R180
WINDOW 0 24 64 Left 2
WINDOW 3 24 0 Left 2
SYMATTR InstName D2
SYMATTR Value BZX84C15L
SYMBOL diode 112 176 R0
SYMATTR InstName D4
SYMATTR Value 1N914
SYMBOL res 304 240 R90
WINDOW 0 0 56 VBottom 2
WINDOW 3 32 56 VTop 2
SYMATTR InstName R2
SYMATTR Value 10K
TEXT -82 488 Left 2 !.dc V1 -10 60 0.1
