Version 4
SHEET 1 980 680
WIRE 160 16 16 16
WIRE 160 48 160 16
WIRE 16 128 16 16
WIRE 912 144 672 144
WIRE 160 160 160 112
WIRE 224 160 160 160
WIRE 448 160 304 160
WIRE 544 160 448 160
WIRE 784 176 672 176
WIRE 912 176 912 144
WIRE 544 192 528 192
WIRE 704 208 672 208
WIRE 160 224 160 160
WIRE 448 224 448 160
WIRE 784 240 784 176
WIRE 16 336 16 208
WIRE 160 336 160 288
WIRE 160 336 16 336
WIRE 256 336 160 336
WIRE 448 336 448 288
WIRE 448 336 256 336
WIRE 528 336 528 192
WIRE 528 336 448 336
WIRE 704 336 704 208
WIRE 704 336 528 336
WIRE 784 336 784 320
WIRE 784 336 704 336
WIRE 912 336 912 256
WIRE 912 336 784 336
WIRE 256 368 256 336
FLAG 256 368 0
SYMBOL voltage 16 112 R0
WINDOW 123 0 0 Left 0
WINDOW 39 0 0 Left 0
SYMATTR InstName V1
SYMATTR Value 0v
SYMBOL schottky 176 288 R180
WINDOW 0 24 64 Left 2
WINDOW 3 24 0 Left 2
SYMATTR InstName D2
SYMATTR Value 1N5819
SYMBOL res 320 144 R90
WINDOW 0 0 56 VBottom 2
WINDOW 3 32 56 VTop 2
SYMATTR InstName R2
SYMATTR Value 250K
SYMBOL voltage 784 224 R0
WINDOW 0 24 96 Left 2
WINDOW 3 24 16 Left 2
WINDOW 123 0 0 Left 0
WINDOW 39 0 0 Left 0
SYMATTR InstName V2
SYMATTR Value 3.3V
SYMBOL schottky 144 48 R0
SYMATTR InstName D1
SYMATTR Value 1N5819
SYMBOL AutoGenerated\\TLV7011 608 176 R0
SYMATTR InstName U2
SYMBOL res 896 160 R0
SYMATTR InstName R1
SYMATTR Value 10K
SYMBOL AutoGenerated\\BZX84C3V3LY 448 256 R270
SYMATTR InstName U1
TEXT -16 392 Left 2 !.dc V1 -40 30 0.1
